test/data/SADI_SIN_NEA.raw
@!IC, SBASE,REV,XFRRAT,NXFRAT,BASFRQ
0,   100.00, 34,     1,     1, 50.00     / PSS(R)E-34.9    FRI, NOV 07 2025   8:31
PICO HÁBIL DIURNO DEL VERANO 25/26 DEMANDA SADI 30960 MW

GENERAL, THRSHZ=0.0001, PQBRAK=0.7, BLOWUP=5.0
GAUSS, ITMX=100, ACCP=1.6, ACCQ=1.6, ACCM=1.0, TOL=0.0001
NEWTON, ITMXN=30, ACCN=1.0, TOLN=0.1, VCTOLQ=0.1, VCTOLV=0.00001, DVLIM=0.99, NDVFCT=0.99
ADJUST, ADJTHR=0.005, ACCTAP=1.0, TAPLIM=0.05, SWVBND=100.0, MXTPSS=99, MXSWIM=10
TYSL, ITMXTY=20, ACCTY=1.0, TOLTY=0.00001
SOLVER, FNSL, ACTAPS=0, AREAIN=0, PHSHFT=0, DCTAPS=1, SWSHNT=0, FLATST=0, VARLIM=0, NONDIV=0
RATING, 1, "RATE1 ", "RATING SET 1                    "
RATING, 2, "RATE2 ", "RATING SET 2                    "
RATING, 3, "RATE3 ", "RATING SET 3                    "
RATING, 4, "RATE4 ", "RATING SET 4                    "
RATING, 5, "RATE5 ", "RATING SET 5                    "
RATING, 6, "RATE6 ", "RATING SET 6                    "
RATING, 7, "RATE7 ", "RATING SET 7                    "
RATING, 8, "RATE8 ", "RATING SET 8                    "
RATING, 9, "RATE9 ", "RATING SET 9                    "
RATING,10, "RATE10", "RATING SET 10                   "
RATING,11, "RATE11", "RATING SET 11                   "
RATING,12, "RATE12", "RATING SET 12                   "
0 / END OF SYSTEM-WIDE DATA, BEGIN BUS DATA
@!   I,'NAME        ', BASKV, IDE,AREA,ZONE,OWNER, VM,        VA,    NVHI,   NVLO,   EVHI,   EVLO
    10,'NPMADRYN    ', 500.0000,1,  21,  51,  10,1.02543,  26.0652,1.10000,0.90000,1.10000,0.90000
    11,'NPMD.CHL    ', 500.0000,1,  21,  51,  10,0.99415,  36.1194,1.10000,0.90000,1.10000,0.90000
    12,'SCN_500     ', 500.0000,1,  21,  52,  10,1.01123,  28.9638,1.10000,0.90000,1.10000,0.90000
    15,'RSCRUZ      ', 500.0000,1,  21,  52,  10,1.00550,  28.0859,1.10000,0.90000,1.10000,0.90000
    19,'ESPERANZ    ', 500.0000,1,  21,  52,  10,1.00359,  27.7323,1.10000,0.90000,1.10000,0.90000
   100,'FUTAL330    ', 330.0000,1,  21,  51,  10,1.04767,  50.4985,1.10000,0.90000,1.10000,0.90000
   102,'FUTAHI01    ',  13.8000,2,  21,  51,   6,1.04000,  54.5179,1.10000,0.90000,1.10000,0.90000
   104,'FUTAHI02    ',  13.8000,2,  21,  51,   6,1.04000,  54.5179,1.10000,0.90000,1.10000,0.90000
   106,'FUTAHI03    ',  13.8000,2,  21,  51,   6,1.04000,  54.5179,1.10000,0.90000,1.10000,0.90000
   108,'FUTAHI04    ',  13.8000,2,  21,  51,   6,1.04000,  54.5179,1.10000,0.90000,1.10000,0.90000
   115,'R.TURBIO    ', 220.0000,1,  21,  52,   1,1.01399,  26.2559,1.10000,0.90000,1.10000,0.90000
   117,'ESPERANZ    ', 220.0000,1,  21,  52,   1,1.00593,  26.7367,1.10000,0.90000,1.10000,0.90000
   118,'RGALLEGO    ', 220.0000,1,  21,  52,   1,1.00878,  25.7257,1.10000,0.90000,1.10000,0.90000
   190,'ALTG09CC    ',  10.5000,2,  16,  53,   8,1.02185,  37.4944,1.10000,0.90000,1.10000,0.90000
   191,'ALTG10CC    ',  10.5000,2,  16,  53,   8,1.02185,  37.4944,1.10000,0.90000,1.10000,0.90000
   192,'ALTV11CC    ',  10.5000,2,  16,  53,   8,1.02367,  36.4464,1.10000,0.90000,1.10000,0.90000
   193,'SERIE DT    ', 132.0000,1,  16,  53,   2,1.00000,  31.0775,1.10000,0.90000,1.10000,0.90000
   200,'PMADR330    ', 330.0000,1,  21,  51,   1,1.01557,  31.1933,1.10000,0.90000,1.10000,0.90000
   207,'ALUATG07    ',  11.0000,2,  16,  53,   8,1.02174,  25.1422,1.10000,0.90000,1.10000,0.90000
   208,'ALUATG08    ',  11.0000,2,  16,  53,   8,1.02174,  25.1422,1.10000,0.90000,1.10000,0.90000
   209,'ALUATV01    ',  11.0000,2,  16,  53,   8,1.02174,  25.1422,1.10000,0.90000,1.10000,0.90000
   210,'APPA330A    ', 330.0000,1,  16,  53,   2,1.01492,  31.1806,1.10000,0.90000,1.10000,0.90000
   211,'APPA330B    ', 330.0000,1,  16,  53,   2,1.01492,  31.1933,1.10000,0.90000,1.10000,0.90000
   212,'AL-CE0A2    ',  33.0000,1,  16,  53,   2,1.02174,  25.1422,1.10000,0.90000,1.10000,0.90000
   213,'APPA330C    ', 330.0000,1,  16,  53,   2,1.01493,  31.1932,1.10000,0.90000,1.10000,0.90000
   215,'LA FLECHA   ', 132.0000,1,  16,  53,  10,1.00250,  31.1905,1.10000,0.90000,1.10000,0.90000
   216,'AL-CE0A4    ',  33.0000,1,  16,  53,   2,1.02174,  25.1422,1.10000,0.90000,1.10000,0.90000
   217,'AL-CE0A5    ',  33.0000,1,  16,  53,   2,1.02174,  25.1422,1.10000,0.90000,1.10000,0.90000
   218,'AL-CE0A3    ',  33.0000,1,  16,  53,   2,1.02174,  25.1422,1.10000,0.90000,1.10000,0.90000
   219,'AEG         ',  13.2000,2,  16,  53,   4,1.02174,  25.1422,1.10000,0.90000,1.10000,0.90000
   220,'PMADRYN1    ', 132.0000,1,  21,  51,   1,1.03795,  30.7404,1.10000,0.90000,1.10000,0.90000
   221,'PMADRYN2    ', 132.0000,1,  21,  51,  10,1.01570,  28.5800,1.10000,0.90000,1.10000,0.90000
   222,'AL-CE0A1    ',  33.0000,1,  16,  53,   2,1.00160,  31.0901,1.10000,0.90000,1.10000,0.90000
   223,'LB ESTE     ', 132.0000,1,  21,  51,  10,1.01807,  31.1559,1.10000,0.90000,1.10000,0.90000
   224,'NPMAD330    ', 330.0000,1,  21,  51,  10,1.01569,  31.1642,1.10000,0.90000,1.10000,0.90000
   226,'LB OESTE    ', 132.0000,1,  21,  51,  10,1.02942,  30.5226,1.10000,0.90000,1.10000,0.90000
   227,'SERV AUX    ',  33.0000,1,  16,  53,   2,1.02174,  25.1422,1.10000,0.90000,1.10000,0.90000
   230,'DGPAL132    ', 132.0000,1,  21,  51,  10,1.03388,  30.6357,1.10000,0.90000,1.10000,0.90000
   240,'TRELW132    ', 132.0000,1,  21,  51,  10,1.01673,  32.1081,1.10000,0.90000,1.10000,0.90000
   242,'TREW13.2    ',  13.2000,2,  21,  51,   1,0.98491,  28.4701,1.10000,0.90000,1.10000,0.90000
   243,'RAWSON      ', 132.0000,1,  21,  51,   1,1.02145,  32.8130,1.10000,0.90000,1.10000,0.90000
   244,'TRELEW33    ',  33.0000,1,  21,  51,   1,0.98464,  29.1578,1.10000,0.90000,1.10000,0.90000
   246,'PE_PMADR    ', 132.0000,1,  21,  51,  10,1.01505,  29.4106,1.10000,0.90000,1.10000,0.90000
   250,'AMEGH132    ', 132.0000,1,  21,  51,   1,1.03787,  34.9500,1.10000,0.90000,1.10000,0.90000
   251,'AMEGHI01    ',  13.2000,2,  21,  51,   6,1.04000,  36.8082,1.10000,0.90000,1.10000,0.90000
   253,'PE_ALUAR    ', 132.0000,1,  16,  53,  10,1.00509,  32.9602,1.10000,0.90000,1.10000,0.90000
   254,'ALUA33_01   ',  33.0000,1,  16,  53,  10,0.99991,  36.1374,1.10000,0.90000,1.10000,0.90000
   255,'ALUAR33_03  ',  33.0000,1,  16,  53,  10,0.99955,  36.2614,1.10000,0.90000,1.10000,0.90000
   256,'ALUAR33_07  ',  33.0000,1,  16,  53,  10,1.00311,  36.3856,1.10000,0.90000,1.10000,0.90000
   257,'ALUAR33_09  ',  33.0000,1,  16,  53,  10,1.00352,  36.6299,1.10000,0.90000,1.10000,0.90000
   258,'PER-132     ', 132.0000,1,  21,  51,   1,1.02430,  33.2653,1.10000,0.90000,1.10000,0.90000
   259,'AL-CEB      ', 132.0000,1,  16,  53,   2,1.00000,  31.0775,1.10000,0.90000,1.10000,0.90000
   261,'AL-CEA      ', 132.0000,1,  16,  53,   2,1.00000,  31.0775,1.10000,0.90000,1.10000,0.90000
   264,'FUTAL132    ', 132.0000,1,  21,  51,  10,1.03819,  49.3509,1.10000,0.90000,1.10000,0.90000
   265,'AL-CEB0C    ',  33.0000,1,  16,  53,   2,1.00160,  31.0901,1.10000,0.90000,1.10000,0.90000
   266,'ESQUE132    ', 132.0000,1,  21,  51,  10,1.03147,  48.9302,1.10000,0.90000,1.10000,0.90000
   268,'SERIE AT    ', 132.0000,1,  16,  53,   2,1.00000,  31.0775,1.10000,0.90000,1.10000,0.90000
   269,'SERIE BT    ', 132.0000,1,  16,  53,   2,1.00000,  31.0775,1.10000,0.90000,1.10000,0.90000
   271,'ELCOIHUE    ', 132.0000,1,  21,  51,   1,1.01072,  48.5842,1.10000,0.90000,1.10000,0.90000
   272,'CHUBUNOR2   ', 132.0000,1,  21,  51,  10,1.01571,  29.3082,1.10000,0.90000,1.10000,0.90000
   273,'PMADRYN2    ', 132.0000,1,  21,  51,  10,1.01570,  28.5800,1.10000,0.90000,1.10000,0.90000
   275,'LB          ', 132.0000,1,  21,  51,  10,1.01629,  31.4050,1.10000,0.90000,1.10000,0.90000
   280,'GOLONDRI    ',  13.2000,1,  21,  51,  10,0.94639,  47.8840,1.10000,0.90000,1.10000,0.90000
   281,'LIMRN-CH    ',  13.2000,1,  21,  51,  10,0.88816,  47.7341,1.10000,0.90000,1.10000,0.90000
   282,'ELBOLSON    ',  13.2000,1,  21,  51,   1,0.84474,  47.6089,1.10000,0.90000,1.10000,0.90000
   300,'SGRAN132    ', 132.0000,1,   7,  26,   1,0.99605,  24.9495,1.10000,0.90000,1.10000,0.90000
   310,'PCOLO132    ', 132.0000,1,   7,  26,  10,0.99585,  24.8966,1.10000,0.90000,1.10000,0.90000
   311,'MALASPINA   ', 132.0000,1,  21,  51,  10,1.02558,  36.8534,1.10000,0.90000,1.10000,0.90000
   315,'RSCRUZ      ', 132.0000,1,  21,  52,   1,1.01926,  27.8599,1.10000,0.90000,1.10000,0.90000
   320,'SANOE132    ', 132.0000,1,   7,  26,   1,0.95594,  20.1441,1.10000,0.90000,1.10000,0.90000
   322,'SANES132    ', 132.0000,1,   7,  26,   1,0.95177,  19.6003,1.10000,0.90000,1.10000,0.90000
   330,'VIEDM132    ', 132.0000,1,   7,  26,   1,0.97500,  10.6303,1.10000,0.90000,1.10000,0.90000
   332,'VIED13.2    ',  13.2000,1,   7,  26,   1,0.99452,   6.4076,1.10000,0.90000,1.10000,0.90000
   334,'VIEDMA33    ',  33.0000,1,   7,  26,  10,1.00324,   7.9000,1.10000,0.90000,1.10000,0.90000
   400,'C.RIV.A1    ', 132.0000,1,  21,  51,  10,0.99975,  33.3624,1.10000,0.90000,1.10000,0.90000
   401,'C.RIV.A     ', 132.0000,1,  21,  51,  10,0.99970,  33.3575,1.10000,0.90000,1.10000,0.90000
   402,'GARAYALDE   ', 132.0000,1,  21,  51,  10,1.03590,  36.7345,1.10000,0.90000,1.10000,0.90000
   403,'HERCULES    ', 132.0000,1,  21,  52,  10,1.01583,  34.8258,1.10000,0.90000,1.10000,0.90000
   404,'ESCALANT    ', 132.0000,1,  21,  51,  10,0.99109,  33.9074,1.10000,0.90000,1.10000,0.90000
   405,'PE_MBEHR    ', 132.0000,1,  21,  51,  10,1.00178,  35.3726,1.10000,0.90000,1.10000,0.90000
   406,'CRIVTG26    ',  13.2000,2,  21,  51,   4,0.99970,  33.3575,1.10000,0.90000,1.10000,0.90000
   407,'GARA33_01   ',  33.0000,1,  21,  51,  10,1.02379,  39.0129,1.10000,0.90000,1.10000,0.90000
   408,'C.RIV.A1    ',  10.4000,1,  21,  51,   1,0.99074,  31.7658,1.10000,0.90000,1.10000,0.90000
   409,'CRIVTG21    ',  10.4000,2,  21,  51,   4,0.99074,  31.7658,1.10000,0.90000,1.10000,0.90000
   410,'C.RIV.A1    ',  66.0000,2,  21,  51,   1,0.99437,  34.1181,1.10000,0.90000,1.10000,0.90000
   411,'ESCALANT2   ', 132.0000,1,  21,  51,   1,0.99109,  33.9074,1.10000,0.90000,1.10000,0.90000
   412,'CT_MBEHR2   ', 132.0000,1,  21,  51,  10,1.00171,  35.4117,1.10000,0.90000,1.10000,0.90000
   413,'BICE33_02   ',  33.0000,1,  21,  52,  10,1.01114,  43.3615,1.10000,0.90000,1.10000,0.90000
   415,'GARA13_01   ',  13.2000,1,  21,  51,  10,1.02344,  39.1802,1.10000,0.90000,1.10000,0.90000
   416,'SEBER1      ',  66.0000,1,  21,  51,   1,1.00590,  35.9468,1.10000,0.90000,1.10000,0.90000
   417,'SEBER1_35   ',  35.0000,1,  21,  51,  10,0.98903,  38.9099,1.10000,0.90000,1.10000,0.90000
   418,'SEBER2      ',  35.0000,1,  21,  51,   1,0.99312,  39.4683,1.10000,0.90000,1.10000,0.90000
   420,'C.RIV.A1    ',  33.0000,2,  21,  51,   1,0.98995,  31.5639,1.10000,0.90000,1.10000,0.90000
   422,'CRIVTG23    ',  13.8000,2,  21,  51,   4,0.98694,  30.9877,1.10000,0.90000,1.10000,0.90000
   423,'MB_ALL_35   ',  35.0000,1,  21,  51,  10,0.99312,  39.4683,1.10000,0.90000,1.10000,0.90000
   424,'MB_JEN_35   ',  35.0000,1,  21,  51,  10,0.99312,  39.4683,1.10000,0.90000,1.10000,0.90000
   437,'CRIVTG78    ',  13.8000,2,  21,  51,   8,0.99970,  33.3575,1.10000,0.90000,1.10000,0.90000
   438,'CRIVTV25    ',  13.8000,2,  21,  51,   8,0.99970,  33.3575,1.10000,0.90000,1.10000,0.90000
   440,'VHERM132    ', 132.0000,2,  21,  51,   1,0.96770,  32.3975,1.10000,0.90000,1.10000,0.90000
   441,'SAN JOSE    ', 132.0000,1,  21,  52,   1,0.99117,  32.8623,1.10000,0.90000,1.10000,0.90000
   442,'CNEGR132    ', 132.0000,2,  21,  51,   1,0.95731,  31.8746,1.10000,0.90000,1.10000,0.90000
   444,'PAMCA132    ', 132.0000,2,  21,  51,   1,0.98189,  33.1982,1.10000,0.90000,1.10000,0.90000
   445,'TORDI132    ', 132.0000,2,  21,  51,   1,0.98091,  33.1438,1.10000,0.90000,1.10000,0.90000
   446,'LPER1132    ', 132.0000,1,  21,  52,   1,1.03418,  37.4024,1.10000,0.90000,1.10000,0.90000
   448,'LASHE132    ', 132.0000,2,  21,  52,   1,1.00581,  34.7981,1.10000,0.90000,1.10000,0.90000
   449,'DIADEMA     ', 132.0000,1,  21,  51,   1,0.99649,  33.9072,1.10000,0.90000,1.10000,0.90000
   450,'BSM132R     ', 132.0000,2,  21,  51,   1,0.99807,  33.3560,1.10000,0.90000,1.10000,0.90000
   451,'DIAD33_01   ',  33.0000,1,  21,  51,  10,0.97623,  36.6464,1.10000,0.90000,1.10000,0.90000
   453,'DIADEO01    ',   0.4000,2,  21,  51,  11,1.03000,  37.8728,1.10000,0.90000,1.10000,0.90000
   454,'C.OLIVIA    ', 132.0000,1,  21,  52,   1,1.03040,  34.3428,1.10000,0.90000,1.10000,0.90000
   455,'AIKE        ', 132.0000,1,  21,  52,   1,0.99436,  33.2732,1.10000,0.90000,1.10000,0.90000
   456,'ABASOLO     ', 132.0000,1,  21,  51,   1,1.00013,  33.4862,1.10000,0.90000,1.10000,0.90000
   457,'OROPLATA    ', 132.0000,1,  21,  52,   1,0.98247,  32.0011,1.10000,0.90000,1.10000,0.90000
   458,'C.LEON      ', 132.0000,1,  21,  52,  10,1.03371,  34.5460,1.10000,0.90000,1.10000,0.90000
   459,'PT1-132R    ', 132.0000,2,  21,  52,   1,1.02210,  31.9495,1.10000,0.90000,1.10000,0.90000
   460,'PT1-132M    ', 132.0000,1,  21,  52,   1,1.02210,  31.9495,1.10000,0.90000,1.10000,0.90000
   461,'SCN_132     ', 132.0000,1,  21,  52,  10,1.02302,  31.8638,1.10000,0.90000,1.10000,0.90000
   462,'PTRUN235    ',  35.0000,1,  21,  52,   1,1.00430,  32.2285,1.10000,0.90000,1.10000,0.90000
   463,'PTRUN35R    ',  35.0000,2,  21,  52,   1,1.00430,  32.2285,1.10000,0.90000,1.10000,0.90000
   464,'PTR1TG24    ',  13.8000,2,  21,  52,   4,0.96521,  32.2362,1.10000,0.90000,1.10000,0.90000
   466,'PTR1TG25    ',  10.5000,2,  21,  52,   4,0.96487,  32.2418,1.10000,0.90000,1.10000,0.90000
   467,'PCR         ', 132.0000,1,  21,  52,   1,1.02203,  32.0601,1.10000,0.90000,1.10000,0.90000
   468,'PTR1TG23    ',  10.5000,2,  21,  52,   4,1.00430,  32.2285,1.10000,0.90000,1.10000,0.90000
   470,'PT2--132    ', 132.0000,1,  21,  52,  10,1.02220,  31.9472,1.10000,0.90000,1.10000,0.90000
   472,'PT2-6.9     ',  35.0000,1,  21,  52,   1,1.02220,  31.9472,1.10000,0.90000,1.10000,0.90000
   474,'ELCORDON    ',  35.0000,1,  21,  52,   1,1.02415,  35.4123,1.10000,0.90000,1.10000,0.90000
   477,'MESESPI     ',  35.0000,1,  21,  52,   1,1.03059,  37.9564,1.10000,0.90000,1.10000,0.90000
   478,'MESEDI01    ',   0.4000,2,  21,  52,   4,1.00000,  44.1436,1.10000,0.90000,1.10000,0.90000
   479,'SCN_TER1    ',  33.0000,1,  21,  52,  10,1.02552,  31.6082,1.10000,0.90000,1.10000,0.90000
   480,'PDES132M    ', 132.0000,1,  21,  52,   1,1.02655,  39.2325,1.10000,0.90000,1.10000,0.90000
   483,'PS.A.BIEDMA ', 132.0000,1,  21,  52,   1,1.02863,  39.4373,1.10000,0.90000,1.10000,0.90000
   484,'SCN_TER2    ',  33.0000,1,  21,  52,  10,1.02511,  31.6498,1.10000,0.90000,1.10000,0.90000
   490,'CTPAT132    ', 132.0000,1,  21,  51,  10,1.00247,  33.6534,1.10000,0.90000,1.10000,0.90000
   491,'PATATG01    ',  11.5000,2,  21,  51,   8,1.03000,  37.3950,1.10000,0.90000,1.10000,0.90000
   492,'PATATG02    ',  11.5000,2,  21,  51,   8,1.00247,  33.6534,1.10000,0.90000,1.10000,0.90000
   493,'PATATV01    ',  11.5000,2,  21,  51,   8,1.03000,  34.8547,1.10000,0.90000,1.10000,0.90000
   494,'CHUBUNOR    ', 132.0000,1,  21,  51,  10,1.03536,  31.5446,1.10000,0.90000,1.10000,0.90000
   495,'PEBICENT    ', 132.0000,1,  21,  52,  10,1.02754,  39.7759,1.10000,0.90000,1.10000,0.90000
   500,'HERC33_01   ',  33.0000,1,  21,  52,  10,1.00776,  37.4961,1.10000,0.90000,1.10000,0.90000
   501,'PM33_01     ',  33.0000,1,  21,  51,  10,1.01196,  31.7043,1.10000,0.90000,1.10000,0.90000
   504,'RSCRUZ      ',  33.0000,1,  21,  52,   1,1.01912,  27.8357,1.10000,0.90000,1.10000,0.90000
   508,'LBVI33_02   ',  33.0000,1,  21,  51,  10,0.99157,  33.1586,1.10000,0.90000,1.10000,0.90000
   510,'PM33_02     ',  33.0000,1,  21,  51,  10,1.03773,  30.7970,1.10000,0.90000,1.10000,0.90000
   511,'PM33_01     ',  33.0000,1,  21,  51,  10,1.03628,  30.7153,1.10000,0.90000,1.10000,0.90000
   512,'C.LEON33_01 ',  33.0000,1,  21,  52,  10,1.02902,  36.9599,1.10000,0.90000,1.10000,0.90000
   513,'C.LEON33_02 ',  33.0000,1,  21,  52,  10,1.03240,  37.4175,1.10000,0.90000,1.10000,0.90000
   514,'CRITER10    ',  13.2000,1,  21,  51,  10,0.99353,  34.2383,1.10000,0.90000,1.10000,0.90000
   515,'CRITER11    ',  13.2000,1,  21,  52,  10,0.99381,  34.1987,1.10000,0.90000,1.10000,0.90000
   516,'ESQ1.TER    ',  13.2000,1,  21,  51,  10,1.00650,  45.1193,1.10000,0.90000,1.10000,0.90000
   517,'BICE33_01   ',  33.0000,1,  21,  52,  10,1.00844,  43.1738,1.10000,0.90000,1.10000,0.90000
   519,'KOST33_01   ',  33.0000,1,  21,  51,  10,0.95687,  35.7644,1.10000,0.90000,1.10000,0.90000
   520,'ESQUEL33    ',  33.0000,1,  21,  51,   1,1.00722,  45.2426,1.10000,0.90000,1.10000,0.90000
   521,'BICE33_03   ',  33.0000,1,  21,  52,  10,1.01200,  43.3737,1.10000,0.90000,1.10000,0.90000
   522,'ELCOIHUE    ',  33.0000,1,  21,  51,   1,0.95373,  46.5270,1.10000,0.90000,1.10000,0.90000
   524,'GOLONDRI    ',  33.0000,1,  21,  51,   1,0.95235,  48.6101,1.10000,0.90000,1.10000,0.90000
   526,'CHNO33_01   ',  33.0000,1,  21,  51,  10,1.01813,  33.7724,1.10000,0.90000,1.10000,0.90000
   527,'ELBOLSON    ',  33.0000,1,  21,  51,  10,0.98432,  50.0394,1.10000,0.90000,1.10000,0.90000
   528,'R.ESCONDIDO ',  33.0000,1,  21,  51,  10,1.01410,  52.6784,1.10000,0.90000,1.10000,0.90000
   532,'LBVI33_03   ',  33.0000,1,  21,  51,  10,0.99405,  33.2709,1.10000,0.90000,1.10000,0.90000
   533,'PEM33_01    ',  33.0000,1,  21,  51,  10,1.00191,  32.2287,1.10000,0.90000,1.10000,0.90000
   534,'PEM33_02    ',  33.0000,1,  21,  51,  10,1.00557,  32.5580,1.10000,0.90000,1.10000,0.90000
   535,'CTMB36_01   ',  36.7000,1,  21,  51,   1,0.98406,  34.1410,1.10000,0.90000,1.10000,0.90000
   536,'MBE2DI01    ',  11.0000,2,  21,  51,  10,1.00000,  35.6406,1.10000,0.90000,1.10000,0.90000
   537,'COIHU6_01   ',   6.6000,1,  21,  51,  10,0.95374,  46.5273,1.10000,0.90000,1.10000,0.90000
   538,'LGO-EBL     ',  33.0000,1,  21,  51,  10,0.95714,  48.8129,1.10000,0.90000,1.10000,0.90000
   539,'LPU-EBL     ',  33.0000,1,  21,  51,  10,0.97051,  49.3993,1.10000,0.90000,1.10000,0.90000
   540,'HERC33_02   ',  33.0000,1,  21,  52,  10,1.00582,  37.3182,1.10000,0.90000,1.10000,0.90000
   541,'PEM33_03    ',  33.0000,1,  21,  51,  10,1.01167,  33.5377,1.10000,0.90000,1.10000,0.90000
   542,'PM33_02     ',  33.0000,1,  21,  51,  10,1.01522,  28.7210,1.10000,0.90000,1.10000,0.90000
   544,'DIAD33_02   ',  33.0000,1,  21,  51,  10,0.97623,  36.6464,1.10000,0.90000,1.10000,0.90000
   545,'ESP.TER1    ',  33.0000,1,  21,  52,   1,0.99492,  26.6497,1.10000,0.90000,1.10000,0.90000
   546,'ESP.TER2    ',  33.0000,1,  21,  52,   1,1.05963,  26.2511,1.10000,0.90000,1.10000,0.90000
   549,'KOST33_02   ',  33.0000,1,  21,  51,  10,0.96428,  35.6904,1.10000,0.90000,1.10000,0.90000
   550,'CHNO33_02   ',  33.0000,1,  21,  51,  10,1.01749,  34.3747,1.10000,0.90000,1.10000,0.90000
   551,'MALAS33_01  ',  33.0000,1,  21,  51,  10,1.00703,  39.4281,1.10000,0.90000,1.10000,0.90000
   552,'MALAS33_02  ',  33.0000,1,  21,  51,  10,1.00828,  39.6012,1.10000,0.90000,1.10000,0.90000
   553,'DIAD33_03   ',  33.0000,1,  21,  51,  10,0.98514,  37.0197,1.10000,0.90000,1.10000,0.90000
   554,'SCN_TER3    ',  33.0000,1,  21,  52,  10,1.02142,  32.0298,1.10000,0.90000,1.10000,0.90000
   556,'R.TURBIO33  ',  33.0000,1,  21,  52,   1,0.98949,  25.7106,1.10000,0.90000,1.10000,0.90000
   557,'R.TURBIO13  ',  13.2000,1,  21,  52,  10,0.98901,  25.6540,1.10000,0.90000,1.10000,0.90000
   558,'CHNO33_03   ',  33.0000,1,  21,  51,  10,1.00894,  31.5016,1.10000,0.90000,1.10000,0.90000
   559,'CHNO33_04   ',  33.0000,1,  21,  51,  10,1.00928,  31.9535,1.10000,0.90000,1.10000,0.90000
   560,'PELB33_01   ',  33.0000,1,  21,  51,  10,1.00636,  35.6167,1.10000,0.90000,1.10000,0.90000
   561,'PELB33_02   ',  33.0000,1,  21,  51,  10,1.00987,  36.0195,1.10000,0.90000,1.10000,0.90000
   562,'PELB33_05   ',  33.0000,1,  21,  51,  10,1.00520,  35.6297,1.10000,0.90000,1.10000,0.90000
   563,'PELB33_06   ',  33.0000,1,  21,  51,  10,1.00761,  35.8357,1.10000,0.90000,1.10000,0.90000
   564,'PELB33_03   ',  33.0000,1,  21,  51,  10,1.00532,  35.8835,1.10000,0.90000,1.10000,0.90000
   565,'PELB33_04   ',  33.0000,1,  21,  51,  10,1.00838,  36.0647,1.10000,0.90000,1.10000,0.90000
   566,'PELB33_07   ',  33.0000,1,  21,  51,  10,1.00281,  34.2531,1.10000,0.90000,1.10000,0.90000
   567,'PELB33_08   ',  33.0000,1,  21,  51,  10,1.00777,  34.6942,1.10000,0.90000,1.10000,0.90000
   568,'LBVI33_01   ',  33.0000,1,  21,  51,  10,0.99154,  33.1428,1.10000,0.90000,1.10000,0.90000
   570,'PER-33      ',  33.0000,1,  21,  51,  10,0.98563,  36.2265,1.10000,0.90000,1.10000,0.90000
   571,'PER-33      ',  33.0000,1,  21,  51,  10,0.98823,  36.3519,1.10000,0.90000,1.10000,0.90000
   572,'LBVI33_04   ',  33.0000,1,  21,  51,  10,0.99356,  33.2519,1.10000,0.90000,1.10000,0.90000
   573,'CHNO33_02   ',  33.0000,1,  21,  51,  10,1.01987,  33.9909,1.10000,0.90000,1.10000,0.90000
   574,'CHNO33_05   ',  33.0000,1,  21,  51,  10,1.00924,  32.1883,1.10000,0.90000,1.10000,0.90000
   575,'CHNO33_06   ',  33.0000,1,  21,  51,  10,1.00868,  31.7461,1.10000,0.90000,1.10000,0.90000
   576,'FLECEO01_33 ',  33.0000,1,  16,  53,  10,0.99001,  34.3031,1.10000,0.90000,1.10000,0.90000
   577,'FLECEO02_33 ',  33.0000,1,  16,  53,  10,0.99001,  34.3031,1.10000,0.90000,1.10000,0.90000
   578,'BEHR33_1    ',  33.0000,1,  21,  51,  10,1.01061,  37.9881,1.10000,0.90000,1.10000,0.90000
...
0 / END OF BUS DATA, BEGIN LOAD DATA
@!   I,'ID',STAT,AREA,ZONE,      PL,        QL,        IP,        IQ,        YP,        YQ, OWNER,SCALE,INTRPT,  DGENP,     DGENQ, DGENF
   115,'1 ',   1,  21,  52,     4.702,     1.968,     0.000,     0.000,     0.000,     0.000,   1,    1,  0,     0.000,     0.000,   0
   118,'1 ',   1,  21,  52,    23.053,     4.446,     0.000,     0.000,     0.000,     0.000,   1,    1,  0,     0.000,     0.000,   0
   193,'1 ',   1,  16,  53,   240.000,   131.000,     0.000,     0.000,     0.000,     0.000,   2,    0,  0,     0.000,     0.000,   0
   217,'1 ',   1,  16,  53,   102.000,    60.300,     0.000,     0.000,     0.000,     0.000,   2,    0,  0,     0.000,     0.000,   0
   222,'1 ',   0,  16,  53,    72.000,    40.800,     0.000,     0.000,     0.000,     0.000,   2,    0,  0,     0.000,     0.000,   0
   227,'1 ',   1,  16,  53,    26.000,    12.600,     0.000,     0.000,     0.000,     0.000,   3,    0,  0,     0.000,     0.000,   0
   230,'1 ',   1,  21,  51,    36.766,    12.876,     0.000,     0.000,     0.000,     0.000,   1,    1,  0,     0.000,     0.000,   0
   242,'1 ',   0,  21,  51,     5.458,     2.797,     0.000,     0.000,     0.000,     0.000,   1,    1,  0,     0.000,     0.000,   0
   242,'2 ',   0,  21,  51,    12.621,     5.964,     0.000,     0.000,     0.000,     0.000,   1,    1,  0,     0.000,     0.000,   0
   242,'3 ',   1,  21,  51,    13.314,     6.443,     0.000,     0.000,     0.000,     0.000,   1,    1,  0,     0.000,     0.000,   0
   243,'1 ',   1,  21,  51,    14.942,     3.334,     0.000,     0.000,     0.000,     0.000,   1,    1,  0,     0.000,     0.000,   0
   244,'1 ',   1,  21,  51,    31.380,    14.466,     0.000,     0.000,     0.000,     0.000,   1,    1,  0,     0.000,     0.000,   0
   250,'1 ',   1,  21,  51,     0.510,     0.214,     0.000,     0.000,     0.000,     0.000,   1,    1,  0,     0.000,     0.000,   0
   250,'2 ',   0,  21,  51,     0.000,     0.000,     0.000,     0.000,     0.000,     0.000,   1,    1,  0,     0.000,     0.000,   0
   259,'1 ',   1,  16,  53,    20.000,    11.000,     0.000,     0.000,     0.000,     0.000,   3,    0,  0,     0.000,     0.000,   0
   265,'1 ',   0,  16,  53,    72.000,    40.800,     0.000,     0.000,     0.000,     0.000,   2,    0,  0,     0.000,     0.000,   0
   268,'1 ',   1,  16,  53,   180.000,   115.300,     0.000,     0.000,     0.000,     0.000,   2,    0,  0,     0.000,     0.000,   0
   269,'1 ',   1,  16,  53,   180.000,   115.300,     0.000,     0.000,     0.000,     0.000,   2,    0,  0,     0.000,     0.000,   0
   282,'1 ',   1,  21,  51,     1.596,     0.768,     0.000,     0.000,     0.000,     0.000,   1,    1,  0,     0.000,     0.000,   0
   300,'1 ',   1,   7,  26,     4.882,     1.926,     0.000,     0.000,     0.000,     0.000,   1,    1,  0,     0.000,     0.000,   0
   310,'1 ',   1,   7,  26,     1.190,     0.460,     0.000,     0.000,     0.000,     0.000,   2,    0,  0,     0.000,     0.000,   0
   315,'1 ',   1,  21,  52,     1.592,     0.521,     0.000,     0.000,     0.000,     0.000,   1,    1,  0,     0.000,     0.000,   0
   315,'2 ',   1,  21,  52,     1.592,     0.521,     0.000,     0.000,     0.000,     0.000,   1,    1,  0,     0.000,     0.000,   0
   320,'1 ',   1,   7,  26,    15.935,     5.235,     0.000,     0.000,     0.000,     0.000,   1,    1,  0,     0.000,     0.000,   0
   322,'1 ',   1,   7,  26,    17.386,     3.526,     0.000,     0.000,     0.000,     0.000,   1,    1,  0,     0.000,     0.000,   0
   332,'1 ',   1,   7,  26,    17.749,     8.624,     0.000,     0.000,     0.000,     0.000,   1,    1,  0,     0.000,     0.000,   0
   405,'1 ',   0,  21,  51,    33.888,    11.544,     0.000,     0.000,     0.000,     0.000,   2,    0,  0,     0.000,     0.000,   0
   408,'1 ',   0,  21,  51,     0.000,     0.000,     0.000,     0.000,     0.000,     0.000,   1,    1,  0,     0.000,     0.000,   0
   409,'1 ',   1,  21,  52,     4.994,     1.709,     0.000,     0.000,     0.000,     0.000,   1,    1,  0,     0.000,     0.000,   0
   409,'2 ',   0,  21,  52,     7.989,     2.734,     0.000,     0.000,     0.000,     0.000,   1,    1,  0,     0.000,     0.000,   0
   409,'3 ',   0,  21,  51,     2.207,     0.617,     0.000,     0.000,     0.000,     0.000,   1,    1,  0,     0.000,     0.000,   0
   410,'2 ',   0,  21,  51,    14.099,     6.455,     0.000,     0.000,     0.000,     0.000,   1,    1,  0,     0.000,     0.000,   0
   410,'3 ',   0,  21,  51,     0.134,     0.551,     0.000,     0.000,     0.000,     0.000,   1,    1,  0,     0.000,     0.000,   0
   411,'1 ',   1,  21,  51,    34.000,    22.400,     0.000,     0.000,     0.000,     0.000,   2,    0,  0,     0.000,     0.000,   0
   416,'1 ',   1,  21,  51,     0.656,     0.246,     0.000,     0.000,     0.000,     0.000,   1,    1,  0,     0.000,     0.000,   0
   418,'1 ',   1,  21,  51,    16.300,     7.000,     0.000,     0.000,     0.000,     0.000,   1,    0,  0,     0.000,     0.000,   0
   420,'1 ',   1,  21,  51,    13.598,     5.875,     0.000,     0.000,     0.000,     0.000,   1,    1,  0,     0.000,     0.000,   0
   420,'2 ',   1,  21,  51,     8.856,     3.607,     0.000,     0.000,     0.000,     0.000,   1,    1,  0,     0.000,     0.000,   0
   420,'3 ',   0,  21,  51,     4.900,     2.000,     0.000,     0.000,     0.000,     0.000,   1,    1,  0,     0.000,     0.000,   0
   422,'1 ',   1,  21,  51,    13.010,     3.544,     0.000,     0.000,     0.000,     0.000,   1,    1,  0,     0.000,     0.000,   0
   440,'1 ',   1,  21,  51,     9.816,     5.676,     0.000,     0.000,     0.000,     0.000,   1,    1,  0,     0.000,     0.000,   0
   440,'2 ',   0,  21,  51,    12.500,     4.000,     0.000,     0.000,     0.000,     0.000,   1,    1,  0,     0.000,     0.000,   0
   440,'3 ',   0,  21,  51,    14.988,     4.265,     0.000,     0.000,     0.000,     0.000,   1,    1,  0,     0.000,     0.000,   0
   441,'1 ',   1,  21,  52,     3.897,     1.685,     0.000,     0.000,     0.000,     0.000,   1,    1,  0,     0.000,     0.000,   0
   442,'1 ',   1,  21,  51,    11.304,     7.787,     0.000,     0.000,     0.000,     0.000,   1,    1,  0,     0.000,     0.000,   0
   442,'2 ',   0,  21,  51,     5.571,     2.551,     0.000,     0.000,     0.000,     0.000,   1,    1,  0,     0.000,     0.000,   0
   442,'3 ',   0,  21,  51,     2.500,     1.428,     0.000,     0.000,     0.000,     0.000,   1,    1,  0,     0.000,     0.000,   0
   444,'1 ',   1,  21,  51,    16.167,     3.652,     0.000,     0.000,     0.000,     0.000,   1,    1,  0,     0.000,     0.000,   0
   444,'2 ',   0,  21,  51,    12.166,     5.570,     0.000,     0.000,     0.000,     0.000,   1,    1,  0,     0.000,     0.000,   0
   444,'3 ',   0,  21,  51,     3.500,     0.658,     0.000,     0.000,     0.000,     0.000,   1,    1,  0,     0.000,     0.000,   0
   445,'1 ',   1,  21,  51,     5.132,     1.516,     0.000,     0.000,     0.000,     0.000,   1,    1,  0,     0.000,     0.000,   0
   445,'2 ',   0,  21,  51,     9.096,     4.165,     0.000,     0.000,     0.000,     0.000,   1,    1,  0,     0.000,     0.000,   0
   445,'3 ',   0,  21,  51,     3.500,     0.000,     0.000,     0.000,     0.000,     0.000,   1,    1,  0,     0.000,     0.000,   0
   446,'1 ',   1,  21,  52,    15.039,     8.282,     0.000,     0.000,     0.000,     0.000,   1,    1,  0,     0.000,     0.000,   0
   448,'1 ',   1,  21,  52,    26.066,    14.979,     0.000,     0.000,     0.000,     0.000,   1,    1,  0,     0.000,     0.000,   0
   448,'2 ',   0,  21,  52,    26.500,    11.661,     0.000,     0.000,     0.000,     0.000,   1,    1,  0,     0.000,     0.000,   0
   448,'3 ',   0,  21,  52,    10.299,     5.199,     0.000,     0.000,     0.000,     0.000,   1,    1,  0,     0.000,     0.000,   0
   450,'1 ',   0,  21,  51,    30.100,    15.400,     0.000,     0.000,     0.000,     0.000,   1,    1,  0,     0.000,     0.000,   0
   450,'2 ',   0,  21,  51,     0.000,     0.000,     0.000,     0.000,     0.000,     0.000,   1,    1,  0,     0.000,     0.000,   0
   450,'3 ',   0,  21,  51,     0.000,     0.000,     0.000,     0.000,     0.000,     0.000,   1,    1,  0,     0.000,     0.000,   0
   450,'4 ',   1,  21,  52,    28.230,     7.792,     0.000,     0.000,     0.000,     0.000,   1,    1,  0,     0.000,     0.000,   0
   451,'1 ',   1,  21,  51,     2.566,     0.257,     0.000,     0.000,     0.000,     0.000,   1,    1,  0,     0.000,     0.000,   0
   454,'1 ',   1,  21,  52,     9.239,     3.507,     0.000,     0.000,     0.000,     0.000,   1,    1,  0,     0.000,     0.000,   0
   456,'1 ',   1,  21,  51,    17.065,     6.951,     0.000,     0.000,     0.000,     0.000,   1,    1,  0,     0.000,     0.000,   0
   457,'1 ',   1,  21,  52,    16.500,     4.500,     0.000,     0.000,     0.000,     0.000,   2,    0,  0,     0.000,     0.000,   0
   459,'2 ',   0,  21,  52,     5.276,     1.803,     0.000,     0.000,     0.000,     0.000,   1,    1,  0,     0.000,     0.000,   0
   459,'3 ',   0,  21,  52,     7.732,     3.575,     0.000,     0.000,     0.000,     0.000,   1,    1,  0,     0.000,     0.000,   0
   460,'1 ',   1,  21,  52,    16.872,     6.927,     0.000,     0.000,     0.000,     0.000,   1,    1,  0,     0.000,     0.000,   0
   462,'1 ',   0,  21,  52,    27.630,    11.790,     0.000,     0.000,     0.000,     0.000,   1,    1,  0,     0.000,     0.000,   0
   463,'1 ',   1,  21,  52,     6.766,     5.187,     0.000,     0.000,     0.000,     0.000,   1,    1,  0,     0.000,     0.000,   0
   463,'2 ',   0,  21,  52,    15.000,     5.000,     0.000,     0.000,     0.000,     0.000,   1,    1,  0,     0.000,     0.000,   0
   467,'1 ',   1,  21,  52,     5.105,     1.680,     0.000,     0.000,     0.000,     0.000,   1,    1,  0,     0.000,     0.000,   0
   472,'1 ',   1,  21,  52,     0.000,     0.000,     0.000,     0.000,     0.000,     0.000,   1,    1,  0,     0.000,     0.000,   0
   472,'2 ',   0,  21,  52,     0.000,     0.000,     0.000,     0.000,     0.000,     0.000,   1,    1,  0,     0.000,     0.000,   0
   480,'1 ',   1,  21,  52,     3.650,     1.767,     0.000,     0.000,     0.000,     0.000,   1,    1,  0,     0.000,     0.000,   0
   520,'1 ',   1,  21,  51,     9.628,     3.209,     0.000,     0.000,     0.000,     0.000,   1,    1,  0,     0.000,     0.000,   0
   522,'1 ',   1,  21,  51,     8.860,     5.477,     0.000,     0.000,     0.000,     0.000,   1,    1,  0,     0.000,     0.000,   0
   524,'1 ',   1,  21,  51,     2.394,     1.149,     0.000,     0.000,     0.000,     0.000,   1,    1,  0,     0.000,     0.000,   0
   535,'1 ',   1,  21,  51,    19.800,    11.800,     0.000,     0.000,     0.000,     0.000,   2,    0,  0,     0.000,     0.000,   0
   556,'2 ',   1,  21,  52,     3.745,     1.813,     0.000,     0.000,     0.000,     0.000,   1,    1,  0,     0.000,     0.000,   0
   721,'1 ',   1,  21,  52,     6.696,     2.195,     0.000,     0.000,     0.000,     0.000,   1,    1,  0,     0.000,     0.000,   0
  1201,'1 ',   1,   7,  26,    10.132,     3.377,     0.000,     0.000,     0.000,     0.000,   1,    1,  0,     0.000,     0.000,   0
  1205,'1 ',   1,   7,  26,     8.916,     2.837,     0.000,     0.000,     0.000,     0.000,   1,    1,  0,     0.000,     0.000,   0
  1207,'1 ',   1,   7,  27,     8.558,     2.576,     0.000,     0.000,     0.000,     0.000,   1,    1,  0,     0.000,     0.000,   0
  1208,'1 ',   1,   7,  27,     2.034,     1.199,     0.000,     0.000,     0.000,     0.000,   1,    1,  0,     0.000,     0.000,   0
  1209,'1 ',   1,   7,  26,    13.206,     5.135,     0.000,     0.000,     0.000,     0.000,   1,    1,  0,     0.000,     0.000,   0
  1213,'1 ',   1,   7,  26,     8.000,     2.500,     0.000,     0.000,     0.000,     0.000,   2,    0,  0,     0.000,     0.000,   0
  1215,'1 ',   1,   7,  27,     1.150,     0.473,     0.000,     0.000,     0.000,     0.000,   1,    1,  0,     0.000,     0.000,   0
  1216,'1 ',   1,   7,  27,    17.157,     7.194,     0.000,     0.000,     0.000,     0.000,   1,    1,  0,     0.000,     0.000,   0
  1222,'1 ',   1,   7,  27,     7.500,     3.400,     0.000,     0.000,     0.000,     0.000,   1,    0,  0,     0.000,     0.000,   0
  1223,'1 ',   1,   7,  27,    24.700,     9.000,     0.000,     0.000,     0.000,     0.000,   1,    0,  0,     0.000,     0.000,   0
  1228,'1 ',   1,   7,  27,    10.659,     5.016,     0.000,     0.000,     0.000,     0.000,   1,    1,  0,     0.000,     0.000,   0
  1229,'1 ',   1,   7,  26,    22.696,    12.294,     0.000,     0.000,     0.000,     0.000,   1,    1,  0,     0.000,     0.000,   0
  1230,'1 ',   1,   7,  26,    11.154,     4.583,     0.000,     0.000,     0.000,     0.000,   1,    1,  0,     0.000,     0.000,   0
  1231,'2 ',   1,   7,  26,    10.410,     4.490,     0.000,     0.000,     0.000,     0.000,   1,    0,  0,     0.000,     0.000,   0
  1233,'2 ',   1,   7,  26,     7.310,     3.490,     0.000,     0.000,     0.000,     0.000,   1,    0,  0,     0.000,     0.000,   0
  1234,'1 ',   1,   7,  27,    17.199,     5.650,     0.000,     0.000,     0.000,     0.000,   1,    1,  0,     0.000,     0.000,   0
  1235,'1 ',   1,   7,  26,    22.408,     7.794,     0.000,     0.000,     0.000,     0.000,   1,    1,  0,     0.000,     0.000,   0
  1240,'1 ',   1,   7,  27,     5.542,     2.679,     0.000,     0.000,     0.000,     0.000,  10,    1,  0,     0.000,     0.000,   0
  1246,'1 ',   1,   7,  27,     3.511,     1.756,     0.000,     0.000,     0.000,     0.000,   1,    1,  0,     0.000,     0.000,   0
  1248,'1 ',   1,   7,  25,     8.112,     5.900,     0.000,     0.000,     0.000,     0.000,   1,    1,  0,     0.000,     0.000,   0
  1249,'1 ',   1,   7,  26,    14.320,     6.904,     0.000,     0.000,     0.000,     0.000,   1,    1,  0,     0.000,     0.000,   0
  1252,'1 ',   1,   7,  26,    43.685,    11.575,     0.000,     0.000,     0.000,     0.000,   1,    1,  0,     0.000,     0.000,   0
  1254,'1 ',   1,   7,  27,    44.482,    23.980,     0.000,     0.000,     0.000,     0.000,   1,    1,  0,     0.000,     0.000,   0
  1256,'1 ',   1,   7,  25,    11.947,     4.572,     0.000,     0.000,     0.000,     0.000,   1,    1,  0,     0.000,     0.000,   0
  1257,'1 ',   0,   7,  25,     7.890,     4.177,     0.000,     0.000,     0.000,     0.000,   1,    1,  0,     0.000,     0.000,   0
  1261,'1 ',   1,   7,  27,    21.317,     9.279,     0.000,     0.000,     0.000,     0.000,   1,    1,  0,     0.000,     0.000,   0
  1262,'1 ',   1,   7,  27,    18.400,     6.600,     0.000,     0.000,     0.000,     0.000,   1,    0,  0,     0.000,     0.000,   0
  1264,'1 ',   1,   7,  26,    18.589,     7.640,     0.000,     0.000,     0.000,     0.000,   1,    1,  0,     0.000,     0.000,   0
  1266,'1 ',   1,   7,  27,     1.396,     0.574,     0.000,     0.000,     0.000,     0.000,   1,    1,  0,     0.000,     0.000,   0
  1267,'1 ',   1,   7,  27,     9.593,     4.389,     0.000,     0.000,     0.000,     0.000,   1,    1,  0,     0.000,     0.000,   0
  1270,'1 ',   1,   7,  27,     0.656,     0.270,     0.000,     0.000,     0.000,     0.000,   1,    1,  0,     0.000,     0.000,   0
  1271,'1 ',   1,   7,  25,     2.065,     0.737,     0.000,     0.000,     0.000,     0.000,   1,    1,  0,     0.000,     0.000,   0
  1272,'1 ',   1,   7,  26,     6.927,     1.701,     0.000,     0.000,     0.000,     0.000,   1,    1,  0,     0.000,     0.000,   0
  1274,'1 ',   1,   7,  27,    17.448,     4.237,     0.000,     0.000,     0.000,     0.000,   1,    1,  0,     0.000,     0.000,   0
  1275,'1 ',   1,   7,  25,     0.400,     0.100,     0.000,     0.000,     0.000,     0.000,   3,    0,  0,     0.000,     0.000,   0
  1278,'1 ',   1,   7,  27,     7.626,     3.134,     0.000,     0.000,     0.000,     0.000,   1,    1,  0,     0.000,     0.000,   0
  1280,'1 ',   1,   7,  27,     3.000,     1.000,     0.000,     0.000,     0.000,     0.000,   2,    0,  0,     0.000,     0.000,   0
  1283,'1 ',   1,   7,  27,     9.279,     3.511,     0.000,     0.000,     0.000,     0.000,   1,    1,  0,     0.000,     0.000,   0
  1290,'1 ',   1,   7,  26,     3.315,     1.362,     0.000,     0.000,     0.000,     0.000,   1,    1,  0,     0.000,     0.000,   0
  1291,'1 ',   1,   7,  25,    18.142,     5.900,     0.000,     0.000,     0.000,     0.000,   1,    1,  0,     0.000,     0.000,   0
  1292,'1 ',   1,   7,  25,    41.447,    10.767,     0.000,     0.000,     0.000,     0.000,   1,    1,  0,     0.000,     0.000,   0
  1293,'1 ',   1,   7,  25,    15.192,     4.572,     0.000,     0.000,     0.000,     0.000,   1,    1,  0,     0.000,     0.000,   0
  1294,'1 ',   1,   7,  26,    12.100,     6.200,     0.000,     0.000,     0.000,     0.000,   2,    0,  0,     0.000,     0.000,   0
  1295,'1 ',   1,   7,  25,    34.809,    11.800,     0.000,     0.000,     0.000,     0.000,   1,    1,  0,     0.000,     0.000,   0
  1296,'1 ',   1,   7,  26,    20.820,     7.609,     0.000,     0.000,     0.000,     0.000,   1,    1,  0,     0.000,     0.000,   0
  1400,'1 ',   0,   7,  27,    21.000,     6.900,     0.000,     0.000,     0.000,     0.000,   1,    1,  0,     0.000,     0.000,   0
  1400,'S2',   0,   7,  27,     0.084,     0.063,     0.000,     0.000,     0.000,     0.000,   1,    1,  0,     0.000,     0.000,   0
  1500,'1 ',   1,   7,  27,     2.971,     1.221,     0.000,     0.000,     0.000,     0.000,   1,    1,  0,     0.000,     0.000,   0
  1501,'1 ',   1,   7,  27,     2.971,     1.221,     0.000,     0.000,     0.000,     0.000,   1,    1,  0,     0.000,     0.000,   0
  1503,'1 ',   1,   7,  25,     3.210,     0.653,     0.000,     0.000,     0.000,     0.000,   1,    1,  0,     0.000,     0.000,   0
  1504,'1 ',   1,   7,  27,    34.000,    13.600,     0.000,     0.000,     0.000,     0.000,   1,    0,  0,     0.000,     0.000,   0
  1508,'1 ',   1,   7,  25,    19.983,     7.851,     0.000,     0.000,     0.000,     0.000,   1,    1,  0,     0.000,     0.000,   0
  1509,'1 ',   1,   7,  25,    34.957,     8.850,     0.000,     0.000,     0.000,     0.000,   1,    1,  0,     0.000,     0.000,   0
  1510,'1 ',   1,   7,  25,    20.945,     5.900,     0.000,     0.000,     0.000,     0.000,   1,    1,  0,     0.000,     0.000,   0
  1511,'1 ',   1,   7,  27,     3.515,     1.305,     0.000,     0.000,     0.000,     0.000,   1,    1,  0,     0.000,     0.000,   0
  1514,'1 ',   1,   7,  26,    22.000,     6.333,     0.000,     0.000,     0.000,     0.000,   2,    0,  0,     0.000,     0.000,   0
  1515,'1 ',   1,   7,  27,     3.515,     1.305,     0.000,     0.000,     0.000,     0.000,   1,    1,  0,     0.000,     0.000,   0
  1530,'2 ',   0,   7,  27,    29.000,     9.500,     0.000,     0.000,     0.000,     0.000,   1,    1,  0,     0.000,     0.000,   0
  1540,'1 ',   1,   7,  27,     5.455,     2.303,     0.000,     0.000,     0.000,     0.000,  10,    1,  0,     0.000,     0.000,   0
  1546,'1 ',   1,   7,  27,     2.061,     0.606,     0.000,     0.000,     0.000,     0.000,  10,    1,  0,     0.000,     0.000,   0
  1563,'1 ',   1,   7,  27,    11.286,     4.514,     0.000,     0.000,     0.000,     0.000,   1,    1,  0,     0.000,     0.000,   0
  1566,'1 ',   1,   7,  26,     8.511,     2.837,     0.000,     0.000,     0.000,     0.000,   1,    1,  0,     0.000,     0.000,   0
  1568,'1 ',   1,   7,  26,     1.959,     0.804,     0.000,     0.000,     0.000,     0.000,   1,    1,  0,     0.000,     0.000,   0
  1570,'1 ',   1,   7,  26,     3.550,     1.459,     0.000,     0.000,     0.000,     0.000,   1,    1,  0,     0.000,     0.000,   0
  1572,'1 ',   1,   7,  26,     1.836,     0.755,     0.000,     0.000,     0.000,     0.000,   1,    1,  0,     0.000,     0.000,   0
  1574,'1 ',   1,   7,  26,    55.239,    13.327,     0.000,     0.000,     0.000,     0.000,   1,    1,  0,     0.000,     0.000,   0
  1581,'1 ',   1,   7,  26,    12.689,     4.230,     0.000,     0.000,     0.000,     0.000,   1,    1,  0,     0.000,     0.000,   0
  1606,'1 ',   1,   7,  27,    12.000,     6.000,     0.000,     0.000,     0.000,     0.000,   3,    0,  0,     0.000,     0.000,   0
  1610,'1 ',   1,   7,  25,     6.668,     2.624,     0.000,     0.000,     0.000,     0.000,   1,    1,  0,     0.000,     0.000,   0
  1620,'1 ',   1,   7,  27,    19.152,     7.871,     0.000,     0.000,     0.000,     0.000,   1,    1,  0,     0.000,     0.000,   0
  1644,'1 ',   1,   7,  27,    15.100,     6.900,     0.000,     0.000,     0.000,     0.000,   2,    0,  0,     0.000,     0.000,   0
  1647,'1 ',   1,   7,  27,    15.000,     5.000,     0.000,     0.000,     0.000,     0.000,   2,    0,  0,     0.000,     0.000,   0
  1818,'1 ',   1,   7,  27,    14.000,     6.000,     0.000,     0.000,     0.000,     0.000,   2,    0,  0,     0.000,     0.000,   0
  1823,'1 ',   1,   7,   2,     3.998,     1.314,     0.000,     0.000,     0.000,     0.000,   1,    1,  0,     0.000,     0.000,   0
  1840,'1 ',   1,   7,  27,     2.232,     0.917,     0.000,     0.000,     0.000,     0.000,   1,    1,  0,     0.000,     0.000,   0
  1841,'1 ',   1,   7,  27,     0.845,     0.346,     0.000,     0.000,     0.000,     0.000,   1,    1,  0,     0.000,     0.000,   0
  1850,'1 ',   1,   7,  26,    12.141,     5.042,     0.000,     0.000,     0.000,     0.000,   1,    1,  0,     0.000,     0.000,   0
  2200,'1 ',   1,   5,  22,    48.375,    20.338,     0.000,     0.000,     0.000,     0.000,   1,    1,  0,     0.000,     0.000,   0
  2204,'1 ',   1,   5,  21,    30.216,    10.895,     0.000,     0.000,     0.000,     0.000,   1,    1,  0,     0.000,     0.000,   0
  2210,'1 ',   1,   5,  22,    35.301,    14.527,     0.000,     0.000,     0.000,     0.000,   1,    1,  0,     0.000,     0.000,   0
  2212,'1 ',   1,   5,  22,    24.987,    12.348,     0.000,     0.000,     0.000,     0.000,   1,    1,  0,     0.000,     0.000,   0
  2215,'1 ',   1,   5,  21,    65.000,    39.000,     0.000,     0.000,     0.000,     0.000,   2,    0,  0,     0.000,     0.000,   0
  2216,'1 ',   1,   5,  21,    18.595,    10.169,     0.000,     0.000,     0.000,     0.000,   1,    1,  0,     0.000,     0.000,   0
  2220,'1 ',   1,   5,  24,    18.000,     7.000,     0.000,     0.000,     0.000,     0.000,   2,    0,  0,     0.000,     0.000,   0
  2221,'1 ',   1,   5,  23,    45.000,    15.000,     0.000,     0.000,     0.000,     0.000,   2,    0,  0,     0.000,     0.000,   0
  2222,'1 ',   1,   5,  24,     8.426,     5.230,     0.000,     0.000,     0.000,     0.000,   1,    1,  0,     0.000,     0.000,   0
  2224,'1 ',   1,   5,  23,    49.102,    26.003,     0.000,     0.000,     0.000,     0.000,   1,    1,  0,     0.000,     0.000,   0
  2225,'1 ',   1,   5,  23,    12.500,     4.100,     0.000,     0.000,     0.000,     0.000,   2,    0,  0,     0.000,     0.000,   0
  2226,'1 ',   1,   5,  21,    29.781,    17.142,     0.000,     0.000,     0.000,     0.000,   1,    1,  0,     0.000,     0.000,   0
  2227,'1 ',   1,   5,  21,    14.672,     6.392,     0.000,     0.000,     0.000,     0.000,   1,    1,  0,     0.000,     0.000,   0
  2229,'1 ',   1,   5,  21,    33.267,    17.433,     0.000,     0.000,     0.000,     0.000,   1,    1,  0,     0.000,     0.000,   0
  2230,'1 ',   1,   5,  21,    39.884,    21.943,     0.000,     0.000,     0.000,     0.000,   1,    1,  0,     0.000,     0.000,   0
  2232,'1 ',   1,   5,  24,     5.666,     2.179,     0.000,     0.000,     0.000,     0.000,   1,    1,  0,     0.000,     0.000,   0
  2233,'1 ',   1,   5,  23,    36.318,    17.287,     0.000,     0.000,     0.000,     0.000,   1,    1,  0,     0.000,     0.000,   0
  2234,'1 ',   1,   5,  24,    17.287,     6.247,     0.000,     0.000,     0.000,     0.000,   1,    1,  0,     0.000,     0.000,   0
  2235,'1 ',   1,   5,  24,     3.922,     1.598,     0.000,     0.000,     0.000,     0.000,   1,    1,  0,     0.000,     0.000,   0
  2236,'1 ',   1,   5,  22,    15.544,     8.135,     0.000,     0.000,     0.000,     0.000,   1,    1,  0,     0.000,     0.000,   0
  2238,'1 ',   1,   5,  24,     9.007,     2.615,     0.000,     0.000,     0.000,     0.000,   1,    1,  0,     0.000,     0.000,   0
  2239,'1 ',   1,   4,  21,     8.852,     2.789,     0.000,     0.000,     0.000,     0.000,   1,    1,  0,     0.000,     0.000,   0
  2240,'1 ',   1,   5,  22,     7.845,     3.196,     0.000,     0.000,     0.000,     0.000,   1,    1,  0,     0.000,     0.000,   0
  2242,'1 ',   1,   5,  22,    17.433,     8.862,     0.000,     0.000,     0.000,     0.000,   1,    1,  0,     0.000,     0.000,   0
  2243,'1 ',   1,   5,  22,    20.774,    10.314,     0.000,     0.000,     0.000,     0.000,   1,    1,  0,     0.000,     0.000,   0
  2244,'1 ',   1,   5,  21,    29.810,    14.328,     0.000,     0.000,     0.000,     0.000,   1,    1,  0,     0.000,     0.000,   0
  2246,'1 ',   1,   5,  21,    16.997,     9.443,     0.000,     0.000,     0.000,     0.000,   1,    1,  0,     0.000,     0.000,   0
  2248,'1 ',   1,   5,  22,    27.311,    13.365,     0.000,     0.000,     0.000,     0.000,   1,    1,  0,     0.000,     0.000,   0
  2249,'1 ',   1,   5,  22,    24.551,    11.622,     0.000,     0.000,     0.000,     0.000,   1,    1,  0,     0.000,     0.000,   0
  2253,'1 ',   1,   5,  21,     9.440,     3.540,     0.000,     0.000,     0.000,     0.000,   1,    1,  0,     0.000,     0.000,   0
  2254,'1 ',   1,   5,  24,     5.956,     3.341,     0.000,     0.000,     0.000,     0.000,   1,    1,  0,     0.000,     0.000,   0
  2256,'1 ',   1,   5,  22,     7.959,     3.269,     0.000,     0.000,     0.000,     0.000,   1,    1,  0,     0.000,     0.000,   0
  2257,'1 ',   0,   5,  22,    11.342,     3.852,     0.000,     0.000,     0.000,     0.000,   1,    1,  0,     0.000,     0.000,   0
  2258,'1 ',   1,   5,  22,    16.125,     6.101,     0.000,     0.000,     0.000,     0.000,   1,    1,  0,     0.000,     0.000,   0
  2259,'1 ',   1,   5,  22,    20.483,     7.118,     0.000,     0.000,     0.000,     0.000,   1,    1,  0,     0.000,     0.000,   0
  2260,'1 ',   1,   5,  21,     7.990,     2.760,     0.000,     0.000,     0.000,     0.000,   1,    1,  0,     0.000,     0.000,   0
  2263,'1 ',   1,   5,  21,     3.500,     1.600,     0.000,     0.000,     0.000,     0.000,   2,    0,  0,     0.000,     0.000,   0
  2266,'1 ',   1,   5,  24,    21.500,    10.600,     0.000,     0.000,     0.000,     0.000,   2,    0,  0,     0.000,     0.000,   0
  2267,'1 ',   1,   5,  21,     3.500,     1.600,     0.000,     0.000,     0.000,     0.000,   2,    0,  0,     0.000,     0.000,   0
  2268,'1 ',   1,   5,  21,    69.970,    27.187,     0.000,     0.000,     0.000,     0.000,   1,    1,  0,     0.000,     0.000,   0
  2270,'1 ',   1,   5,  21,    26.439,    10.895,     0.000,     0.000,     0.000,     0.000,   1,    1,  0,     0.000,     0.000,   0
  2271,'1 ',   1,   5,  21,     9.046,     2.970,     0.000,     0.000,     0.000,     0.000,   1,    1,  0,     0.000,     0.000,   0
...
0 / END OF LOAD DATA, BEGIN FIXED SHUNT DATA
@!   I,'ID',STATUS,  GL,        BL
  1661,'1 ',1,     0.000,     0.000
  1662,'1 ',1,     0.000,     0.000
  1663,'1 ',1,     0.000,     0.000
  1664,'1 ',1,     0.000,     0.000
  1665,'1 ',1,     0.000,     0.000
  1666,'1 ',1,     0.000,     0.000
  1691,'1 ',1,     0.000,     0.000
  1692,'1 ',1,     0.000,     0.000
  3213,'1 ',1,     0.000,    24.000
  3224,'1 ',1,     0.000,    12.000
  3229,'1 ',1,     0.000,    12.000
  3232,'1 ',1,     0.000,    12.000
  3260,'1 ',1,     0.000,    12.000
  3293,'1 ',1,     0.000,    12.000
  3294,'1 ',1,     0.000,    14.400
  3294,'3 ',0,    48.000,     0.000
  3336,'1 ',1,     0.000,     6.000
  3338,'1 ',1,     0.000,    24.000
  3350,'1 ',1,     0.000,    12.000
  3360,'1 ',1,     0.000,    12.000
  3375,'1 ',1,     0.000,    12.000
  3380,'1 ',1,     0.000,    18.000
  3382,'1 ',1,     0.000,    24.000
  3410,'1 ',1,     0.000,     9.600
  3448,'1 ',1,     0.000,    12.000
  3453,'1 ',1,     0.000,    12.000
  3466,'1 ',1,     0.000,    12.000
  3467,'1 ',1,     0.000,    12.000
  3471,'1 ',1,     0.000,    12.000
  3478,'1 ',1,     0.000,    12.000
  3726,'1 ',1,     0.000,    12.000
  3741,'1 ',1,     0.000,    18.000
  8583,'1 ',1,     0.000,     7.800
0 / END OF FIXED SHUNT DATA, BEGIN GENERATOR DATA
@!   I,'ID',      PG,        QG,        QT,        QB,     VS,    IREG,     MBASE,     ZR,         ZX,         RT,         XT,     GTAP,STAT, RMPCT,      PT,        PB,    O1,    F1,  O2,    F2,  O3,    F3,  O4,    F4,WMOD, WPF,NREG
   102,'1 ',   110.000,    -7.626,    45.000,   -47.000,1.04000,   102,   140.000, 0.00000E+0, 2.20000E-1, 0.00000E+0, 0.00000E+0,1.00000,1,  100.0,   133.000,     0.000,   6,1.0000
   104,'1 ',   110.000,    -7.626,    45.000,   -47.000,1.04000,   104,   140.000, 0.00000E+0, 2.20000E-1, 0.00000E+0, 0.00000E+0,1.00000,1,  100.0,   133.000,     0.000,   6,1.0000
   106,'1 ',   110.000,    -7.626,    45.000,   -47.000,1.04000,   106,   140.000, 0.00000E+0, 2.20000E-1, 0.00000E+0, 0.00000E+0,1.00000,1,  100.0,   133.000,     0.000,   6,1.0000
   108,'1 ',   110.000,    -7.626,    45.000,   -47.000,1.04000,   108,   140.000, 0.00000E+0, 2.20000E-1, 0.00000E+0, 0.00000E+0,1.00000,1,  100.0,   133.000,     0.000,   6,1.0000
   190,'9 ',   155.000,    38.988,    99.600,   -40.800,1.00000,   259,   184.500, 0.00000E+0, 1.88000E-1, 0.00000E+0, 0.00000E+0,1.00000,1,  100.0,   165.000, -9999.000,   8,1.0000
   191,'10',   155.000,    38.988,    99.600,   -40.800,1.00000,   259,   184.500, 0.00000E+0, 1.88000E-1, 0.00000E+0, 0.00000E+0,1.00000,1,  100.0,   165.000, -9999.000,   8,1.0000
   192,'11',   130.000,    38.988,   114.000,   -80.000,1.00000,   259,   190.800, 0.00000E+0, 1.88000E-1, 0.00000E+0, 0.00000E+0,1.00000,1,  100.0,   140.000,    80.000,   8,1.0000
   207,'7 ',    38.000,    -6.250,    20.900,   -13.200,1.00000,   216,    48.240, 0.00000E+0, 1.69000E-1, 0.00000E+0, 0.00000E+0,1.00000,0,  100.0,    41.000,     0.000,   8,1.0000
   208,'8 ',    38.000,    -6.250,    28.181,   -21.273,1.00000,   216,    48.200, 0.00000E+0, 1.69000E-1, 0.00000E+0, 0.00000E+0,1.00000,0,  100.0,    49.000,     0.000,   8,1.0000
   209,'9 ',    32.000,    -6.250,    30.000,   -17.656,1.00000,   216,    50.350, 0.00000E+0, 1.83000E-1, 0.00000E+0, 0.00000E+0,1.00000,0,  100.0,    50.350,     0.000,   8,1.0000
   219,'21',    18.000,     7.511,    15.000,   -10.000,1.05000,   219,    31.500, 0.00000E+0, 1.50000E-1, 0.00000E+0, 0.00000E+0,1.00000,0,  100.0,    21.000, -9999.000,   4,1.0000
   219,'22',    18.000,     7.511,    15.000,   -10.000,1.05000,   219,    31.500, 0.00000E+0, 1.50000E-1, 0.00000E+0, 0.00000E+0,1.00000,0,  100.0,    21.000,     0.000,   4,1.0000
   242,'1 ',    -0.440,    -0.225,    -0.225,    -0.225,1.00000,   242,     0.543, 0.00000E+0, 1.57330E-1, 0.00000E+0, 0.00000E+0,1.00000,0,  100.0,  9999.000, -9999.000,   1,1.0000
   242,'2 ',    -0.659,    -0.338,    -0.338,    -0.338,1.00000,   242,     0.815, 0.00000E+0, 1.57330E-1, 0.00000E+0, 0.00000E+0,1.00000,0,  100.0,  9999.000, -9999.000,   1,1.0000
   242,'3 ',    -0.879,    -0.450,    -0.450,    -0.450,1.00000,   242,     1.087, 0.00000E+0, 1.57330E-1, 0.00000E+0, 0.00000E+0,1.00000,0,  100.0,  9999.000, -9999.000,   1,1.0000
   242,'4 ',   -11.962,    -3.730,    -3.730,    -3.730,1.00000,   242,    12.190, 0.00000E+0, 1.57330E-1, 0.00000E+0, 0.00000E+0,1.00000,0,  100.0,  9999.000, -9999.000,   1,1.0000
   251,'1 ',    10.000,     0.795,    15.000,    -6.000,1.04000,   251,    29.200, 0.00000E+0, 2.10000E-1, 0.00000E+0, 0.00000E+0,1.00000,1,  100.0,    23.400,     0.000,   6,1.0000
   406,'1 ',    25.500,   -10.000,    15.000,   -10.000,1.05000,   406,    32.250, 0.00000E+0, 1.50000E-1, 0.00000E+0, 0.00000E+0,1.00000,0,  100.0,  9999.000, -9999.000,   4,1.0000
   406,'2 ',    25.000,     1.279,    10.000,    -5.000,1.05000,   406,    22.000, 0.00000E+0, 1.52000E-1, 0.00000E+0, 0.00000E+0,1.00000,0,  100.0,  9999.000, -9999.000,   4,1.0000
   409,'1 ',    11.500,    -0.202,    12.000,    -7.000,1.03000,   409,    22.500, 0.00000E+0, 1.50000E-1, 0.00000E+0, 0.00000E+0,1.00000,0,  100.0,  9999.000, -9999.000,   4,1.0000
   410,'1 ',    -0.681,    -0.288,    -0.288,    -0.288,1.00000,   410,     0.814, 0.00000E+0, 1.57330E-1, 0.00000E+0, 0.00000E+0,1.00000,0,  100.0,  9999.000, -9999.000,   1,1.0000
   410,'2 ',    -1.022,    -0.432,    -0.432,    -0.432,1.00000,   410,     1.220, 0.00000E+0, 1.57330E-1, 0.00000E+0, 0.00000E+0,1.00000,0,  100.0,  9999.000, -9999.000,   1,1.0000
   410,'3 ',    -1.362,    -0.576,    -0.576,    -0.576,1.00000,   410,     1.627, 0.00000E+0, 1.57330E-1, 0.00000E+0, 0.00000E+0,1.00000,0,  100.0,  9999.000, -9999.000,   1,1.0000
   410,'4 ',   -19.073,    -8.800,    -8.800,    -8.800,1.00000,   410,    28.000, 0.00000E+0, 1.57330E-1, 0.00000E+0, 0.00000E+0,1.00000,0,  100.0,  9999.000, -9999.000,   1,1.0000
   420,'1 ',    -1.004,    -0.428,    -0.428,    -0.428,1.02000,   420,     1.201, 0.00000E+0, 1.57330E-1, 0.00000E+0, 0.00000E+0,1.00000,0,  100.0,  9999.000, -9999.000,   1,1.0000
   420,'2 ',    -1.506,    -0.642,    -0.642,    -0.642,1.02000,   420,     1.801, 0.00000E+0, 1.57330E-1, 0.00000E+0, 0.00000E+0,1.00000,0,  100.0,  9999.000, -9999.000,   1,1.0000
   420,'3 ',    -2.008,    -0.856,    -0.856,    -0.856,1.02000,   420,     2.402, 0.00000E+0, 1.57330E-1, 0.00000E+0, 0.00000E+0,1.00000,0,  100.0,  9999.000, -9999.000,   1,1.0000
   420,'4 ',   -33.295,   -10.000,   -10.000,   -10.000,1.02000,   420,    34.730, 0.00000E+0, 1.57330E-1, 0.00000E+0, 0.00000E+0,1.00000,0,  100.0,  9999.000, -9999.000,   1,1.0000
   422,'1 ',    16.000,     2.292,    13.000,    -7.000,0.98000,   422,    26.150, 0.00000E+0, 1.70000E-1, 0.00000E+0, 0.00000E+0,1.00000,0,  100.0,    20.500,     0.000,   4,1.0000
   437,'1 ',    20.000,     4.928,    15.000,    -5.000,1.05000,   437,    30.400, 0.00000E+0, 2.01000E-1, 0.00000E+0, 0.00000E+0,1.00000,0,  100.0,    25.000,     0.000,   8,1.0000
   437,'2 ',    20.000,     4.614,    15.000,    -5.000,1.05000,   437,    30.400, 0.00000E+0, 2.01000E-1, 0.00000E+0, 0.00000E+0,1.00000,0,  100.0,    25.000,     0.000,   8,1.0000
   438,'2 ',    20.000,     4.441,    15.000,    -5.000,1.05000,   438,    28.000, 0.00000E+0, 1.86000E-1, 0.00000E+0, 0.00000E+0,1.00000,0,  100.0,    22.600,     0.000,   8,1.0000
   440,'1 ',    -0.434,    -0.325,    -0.325,    -0.325,1.00000,   440,     0.596, 0.00000E+0, 1.57330E-1, 0.00000E+0, 0.00000E+0,1.00000,0,  100.0,  9999.000, -9999.000,   1,1.0000
   440,'2 ',    -0.650,    -0.488,    -0.488,    -0.488,1.00000,   440,     0.894, 0.00000E+0, 1.57330E-1, 0.00000E+0, 0.00000E+0,1.00000,0,  100.0,  9999.000, -9999.000,   1,1.0000
   440,'3 ',    -0.867,    -0.650,    -0.650,    -0.650,1.00000,   440,     1.192, 0.00000E+0, 1.57330E-1, 0.00000E+0, 0.00000E+0,1.00000,0,  100.0,  9999.000, -9999.000,   1,1.0000
   440,'4 ',   -12.238,    -4.000,    -4.000,    -4.000,1.00000,   440,    20.700, 0.00000E+0, 1.57330E-1, 0.00000E+0, 0.00000E+0,1.00000,0,  100.0,  9999.000, -9999.000,   1,1.0000
   442,'1 ',    -0.138,    -0.055,    -0.055,    -0.055,1.00000,   442,     0.164, 0.00000E+0, 1.57330E-1, 0.00000E+0, 0.00000E+0,1.00000,0,  100.0,  9999.000, -9999.000,   1,1.0000
   442,'2 ',    -0.208,    -0.082,    -0.082,    -0.082,1.00000,   442,     0.246, 0.00000E+0, 1.57330E-1, 0.00000E+0, 0.00000E+0,1.00000,0,  100.0,  9999.000, -9999.000,   1,1.0000
   442,'3 ',    -0.277,    -0.110,    -0.110,    -0.110,1.00000,   442,     0.327, 0.00000E+0, 1.57330E-1, 0.00000E+0, 0.00000E+0,1.00000,0,  100.0,  9999.000, -9999.000,   1,1.0000
   442,'4 ',    -6.064,    -3.000,    -3.000,    -3.000,1.00000,   442,     6.320, 0.00000E+0, 1.57330E-1, 0.00000E+0, 0.00000E+0,1.00000,0,  100.0,  9999.000, -9999.000,   1,1.0000
   444,'1 ',    -0.444,    -0.240,    -0.240,    -0.240,1.00000,   444,     0.555, 0.00000E+0, 1.57330E-1, 0.00000E+0, 0.00000E+0,1.00000,0,  100.0,  9999.000, -9999.000,   1,1.0000
   444,'2 ',    -0.665,    -0.359,    -0.359,    -0.359,1.00000,   444,     0.832, 0.00000E+0, 1.57330E-1, 0.00000E+0, 0.00000E+0,1.00000,0,  100.0,  9999.000, -9999.000,   1,1.0000
   444,'3 ',    -0.887,    -0.479,    -0.479,    -0.479,1.00000,   444,     1.109, 0.00000E+0, 1.57330E-1, 0.00000E+0, 0.00000E+0,1.00000,0,  100.0,  9999.000, -9999.000,   1,1.0000
   444,'4 ',   -14.112,    -5.900,    -5.900,    -5.900,1.00000,   444,    13.100, 0.00000E+0, 1.57330E-1, 0.00000E+0, 0.00000E+0,1.00000,0,  100.0,  9999.000, -9999.000,   1,1.0000
   445,'1 ',    -0.320,    -0.240,    -0.240,    -0.240,1.01000,   445,     0.440, 0.00000E+0, 1.57330E-1, 0.00000E+0, 0.00000E+0,1.00000,0,  100.0,  9999.000, -9999.000,   1,1.0000
   445,'2 ',    -0.480,    -0.360,    -0.360,    -0.360,1.01000,   445,     0.660, 0.00000E+0, 1.57330E-1, 0.00000E+0, 0.00000E+0,1.00000,0,  100.0,  9999.000, -9999.000,   1,1.0000
   445,'3 ',    -0.640,    -0.480,    -0.480,    -0.480,1.01000,   445,     0.880, 0.00000E+0, 1.57330E-1, 0.00000E+0, 0.00000E+0,1.00000,0,  100.0,  9999.000, -9999.000,   1,1.0000
   445,'4 ',    -8.489,    -2.800,    -2.800,    -2.800,1.01000,   445,     9.020, 0.00000E+0, 1.57330E-1, 0.00000E+0, 0.00000E+0,1.00000,0,  100.0,  9999.000, -9999.000,   1,1.0000
   448,'1 ',    -0.740,    -0.315,    -0.315,    -0.315,1.00000,   448,     0.885, 0.00000E+0, 1.57330E-1, 0.00000E+0, 0.00000E+0,1.00000,0,  100.0,  9999.000, -9999.000,   1,1.0000
   448,'2 ',    -1.110,    -0.473,    -0.473,    -0.473,1.00000,   448,     1.327, 0.00000E+0, 1.57330E-1, 0.00000E+0, 0.00000E+0,1.00000,0,  100.0,  9999.000, -9999.000,   1,1.0000
   448,'3 ',   -19.404,    -2.000,    -2.000,    -2.000,1.00000,   448,    20.000, 0.00000E+0, 1.57330E-1, 0.00000E+0, 0.00000E+0,1.00000,0,  100.0,  9999.000, -9999.000,   1,1.0000
   448,'4 ',    -8.820,    -1.500,    -1.500,    -1.500,1.00000,   448,    31.500, 0.00000E+0, 1.57330E-1, 0.00000E+0, 0.00000E+0,1.00000,0,  100.0,  9999.000, -9999.000,   1,1.0000
   450,'1 ',    -0.195,    -0.082,    -0.082,    -0.082,1.00000,   450,     0.232, 0.00000E+0, 1.57330E-1, 0.00000E+0, 0.00000E+0,1.00000,0,  100.0,  9999.000, -9999.000,   1,1.0000
   450,'2 ',    -0.292,    -0.122,    -0.122,    -0.122,1.00000,   450,     0.348, 0.00000E+0, 1.57330E-1, 0.00000E+0, 0.00000E+0,1.00000,0,  100.0,  9999.000, -9999.000,   1,1.0000
   450,'3 ',    -0.400,    -0.200,    -0.200,    -0.200,1.00000,   450,     0.464, 0.00000E+0, 1.57330E-1, 0.00000E+0, 0.00000E+0,1.00000,0,  100.0,  9999.000, -9999.000,   1,1.0000
...